LAMMPS (10 Sep 2025 - Development - 0d479cae29)
KOKKOS mode with Kokkos version 4.6.2 is enabled
  will use up to 1 GPU(s) per node
package kokkos
package kokkos newton on neigh half
# Trying to run LAMMPS EAM benchmark using MACE NNP

# MACE requires 'metal' units and 'atomic' style
units         metal
atom_style    atomic
atom_modify   map yes
boundary      p p p
newton        on

# Input and output file
# variable inputfile string "confs/WMo_9.data"dd
variable inputfile string "uob/Al_wide_box.lmp"
variable outputfile1 string "lammps-output/Al_wide_minimize.data"
variable outputfile2 string "lammps-output/Al_wide_final.data"

variable modelfile string "models-uob/GPU_Models/BCC/mace01_64channel_stagetwo.model-mliap_lammps.pt"

read_data uob/Al_wide_box.lmp
Reading data file ...
  orthogonal box = (0 0 0) to (6.216 37.296 37.296)
  reading atoms ...
  576 atoms

# Importing force field
# pair_style mace no_domain_decomposition
pair_style mliap unified models-uob/GPU_Models/BCC/mace01_64channel_stagetwo.model-mliap_lammps.pt 0
pair_coeff * * Al

# Energy minimization
# fix           rel1 all box/relax iso 0.0 vmax 0.001
# min_style     cg
# minimize      1e-4 1e-5 1000 10000

# Preparation and run

# velocity      all create 300.0 4928459 rot yes dist gaussian

neighbor        1.0 bin
neigh_modify    every 1 delay 5 check yes

fix		nvt1 all nvt temp 300.0 300.0 1.0
# fix		nve1 all nve

timestep	0.001
thermo		1

run		1000
Step          Temp          E_pair         E_mol          TotEng         Press
0   0             -2444.6562      0             -2444.6562     -579.55085
Averages over the last 501 of 1001 rows, steps 500 to 1000:
Temp E_pair E_mol TotEng Press
2.57126e-23 -2444.66 0 -2444.66 -579.551
Loop time of 55.5306 on 1 procs for 1000 steps with 576 atoms

write_data      lammps-output/Al_wide_final.data
System init for write_data ...
